                                  MODFLOW-NWT-SWR1 
      U.S. GEOLOGICAL SURVEY MODULAR FINITE-DIFFERENCE GROUNDWATER-FLOW MODEL
                            VERSION 1.1.3, 8/01/2017
                    BASED ON MODFLOW-2005 VERSION 1.11.00 08/08/2013

 LIST FILE: tutorial2.list
                         UNIT    2

 OPENING tutorial2.dis
 FILE TYPE:DIS   UNIT   11   STATUS:OLD    
 FORMAT:FORMATTED              ACCESS:SEQUENTIAL          

 *** ERROR OPENING FILE "tutorial2.dis" ON UNIT    11
       SPECIFIED FILE STATUS: OLD    
       SPECIFIED FILE FORMAT: FORMATTED           
       SPECIFIED FILE ACCESS: SEQUENTIAL          
       SPECIFIED FILE ACTION: READ                
  -- STOP EXECUTION (SGWF2BAS7OPEN)
